Version 4.1
SHEET 1 3604 1884
WIRE 1472 -624 1472 -656
WIRE -176 -480 -288 -480
WIRE -288 -432 -288 -480
WIRE 1120 -320 1120 -352
WIRE -288 -224 -288 -352
WIRE -288 -96 -288 -144
WIRE 1632 128 1632 112
WIRE 1104 144 1104 128
WIRE 1408 144 1408 112
WIRE 544 160 544 144
WIRE 864 160 864 128
WIRE 1072 160 1072 96
WIRE 1328 160 1280 160
WIRE 512 176 512 64
WIRE 784 176 752 176
WIRE 1552 176 1488 176
WIRE 1568 176 1552 176
WIRE 1744 176 1696 176
WIRE 1808 176 1744 176
WIRE 1008 192 944 192
WIRE 1040 192 1008 192
WIRE 1280 192 1168 192
WIRE 1328 192 1280 192
WIRE 304 208 256 208
WIRE 480 208 432 208
WIRE 720 208 608 208
WIRE 784 208 720 208
WIRE 1104 256 1104 240
WIRE 1520 256 1424 256
WIRE 1632 256 1632 224
WIRE 544 272 544 256
WIRE 1072 272 1072 224
WIRE 1408 320 1376 320
WIRE 864 336 832 336
WIRE 1408 352 1408 320
WIRE 1424 352 1424 256
WIRE 864 368 864 336
WIRE 880 368 880 272
WIRE 512 384 512 240
WIRE 512 384 480 384
WIRE 1552 400 1552 176
WIRE 1552 400 1488 400
WIRE 1008 416 1008 192
WIRE 1008 416 944 416
WIRE 1280 416 1280 192
WIRE 1328 416 1280 416
WIRE 720 432 720 208
WIRE 784 432 720 432
WIRE 1552 432 1488 432
WIRE 1008 448 944 448
WIRE 1408 512 1408 480
WIRE 1408 512 1376 512
WIRE 1552 512 1552 432
WIRE 864 528 864 496
WIRE 864 528 832 528
WIRE 1008 528 1008 448
WIRE 1424 624 1424 480
WIRE 1472 624 1424 624
WIRE 880 640 880 496
WIRE 928 640 880 640
FLAG 1120 -352 D
FLAG 1120 -512 VDD
FLAG 224 -592 RESETbar
FLAG 224 -336 SETbar
FLAG 656 -320 CLK
FLAG 256 208 D
FLAG 512 64 VDD
FLAG 880 272 VDD
FLAG 864 128 VDD
FLAG 544 144 CLK
FLAG 544 272 CLKbar
FLAG 480 384 0
FLAG 928 640 0
FLAG 864 256 0
FLAG 1520 256 VDD
FLAG 1408 112 VDD
FLAG 1104 128 CLK
FLAG 1104 256 CLKbar
FLAG 1472 624 0
FLAG 1408 240 0
FLAG 1552 512 SETbar
FLAG 1280 160 RESETbar
FLAG 1072 272 VDD
FLAG 1072 96 0
FLAG 832 528 CLKbar
FLAG 832 336 CLK
FLAG 752 176 SETbar
FLAG 1008 528 RESETbar
FLAG 1376 512 CLK
FLAG 1376 320 CLKbar
FLAG 1632 112 VDD
FLAG 1632 256 0
FLAG 1744 176 Q
FLAG -288 -96 0
FLAG -176 -480 Noise
FLAG 224 -512 0
FLAG 224 -256 0
FLAG 656 -240 0
FLAG 656 -432 0
FLAG 1120 -432 0
FLAG 656 -512 CLKbar
FLAG 1328 -384 Noise
FLAG 1120 -240 0
FLAG 1472 -656 D1
FLAG 1472 -544 0
FLAG 368 256 0
FLAG 368 160 VDD
FLAG 1808 240 0
SYMBOL voltage 1120 -528 R0
WINDOW 123 0 0 Left 0
WINDOW 39 0 0 Left 0
WINDOW 3 24 44 Left 2
SYMATTR Value 1
SYMATTR InstName VDD
SYMBOL voltage 1120 -336 R0
WINDOW 123 0 0 Left 0
WINDOW 39 0 0 Left 0
SYMATTR InstName D
SYMATTR Value PULSE(0 1 0 1p 1p 5n 10n)
SYMBOL voltage 224 -608 R0
WINDOW 123 0 0 Left 0
WINDOW 39 0 0 Left 0
SYMATTR InstName RESET
SYMATTR Value PULSE(1 0 0 1p 1p 2n 20n)
SYMBOL voltage 224 -352 R0
WINDOW 123 0 0 Left 0
WINDOW 39 0 0 Left 0
SYMATTR InstName SET
SYMATTR Value PULSE(1 0 10n 1p 1p 2n 20n)
SYMBOL voltage 656 -528 R0
WINDOW 123 0 0 Left 0
WINDOW 39 0 0 Left 0
SYMATTR InstName CLKbar
SYMATTR Value PULSE(0 1 0 1p 1p 100p 200p)
SYMBOL voltage 656 -336 R0
WINDOW 123 0 0 Left 0
WINDOW 39 0 0 Left 0
SYMATTR InstName CLK1
SYMATTR Value PULSE(1 0 0 1p 1p 100p 200p)
SYMBOL Lib\\TG 544 208 R0
SYMATTR InstName X7
SYMBOL Lib\\NAN2 1392 176 R0
SYMATTR InstName X14
SYMBOL Lib\\TG 1104 192 M180
WINDOW 0 1 13 Bottom 2
SYMATTR InstName X9
SYMBOL Lib\\NAN2 848 192 R0
WINDOW 0 18 2 Bottom 2
SYMATTR InstName X3
SYMBOL Lib\\TristateNAND2 880 432 M0
WINDOW 0 10 16 Bottom 2
SYMATTR InstName X18
SYMBOL Lib\\TristateNAND2 1424 416 M0
WINDOW 0 11 10 Bottom 2
SYMATTR InstName X12
SYMBOL Lib\\Inverter 1632 176 R0
WINDOW 0 -12 14 Bottom 2
SYMATTR InstName X13
SYMBOL bv -288 -240 R0
SYMATTR InstName B2
SYMATTR Value V=0.2*(rand(1e9*time)-0.5)
SYMBOL voltage -288 -448 R0
WINDOW 123 0 0 Left 0
WINDOW 39 0 0 Left 0
WINDOW 3 24 44 Left 2
SYMATTR Value SINE(0 0.1 1GHz)
SYMATTR InstName VDD2
SYMBOL voltage 1472 -640 R0
WINDOW 123 0 0 Left 0
WINDOW 39 0 0 Left 0
SYMATTR InstName D1
SYMATTR Value PULSE(1 0 0 1p 1p 1n 2n)
SYMBOL Lib\\Inverter 368 208 R0
WINDOW 0 -12 14 Bottom 2
SYMATTR InstName X10
SYMBOL cap 1792 176 R0
SYMATTR InstName C1
SYMATTR Value 1f
TEXT 1576 -360 Left 2 !.include cmos.txt\n.tran 80n
TEXT 136 -152 Left 2 !.meas TRAN P_total AVG V(VDD)*-I(VDD) FROM 0 TO 80ns
